Circuit: * Z:\home\fritz\Nextcloud\Elektroniknode\kneipp-thermometer\Simulationen\7-Segment-Matrix.asc

Direct Newton iteration for .op point succeeded.

Date: Sun Sep 20 16:43:47 2020
Total elapsed time: 0.020 seconds.

tnom = 27
temp = 27
method = trap
totiter = 3
traniter = 0
tranpoints = 0
accept = 0
rejected = 0
matrix size = 15
fillins = 6
solver = Alternate
Matrix Compiler1: 2.53 KB object code size
Matrix Compiler2: 2.09 KB object code size

