Circuit: * Z:\home\fritz\Nextcloud\Elektroniknode\kneippometer\Simulationen\7-Segment-Matrix-3.asc

Direct Newton iteration for .op point succeeded.

Date: Mon Feb 22 08:33:59 2021
Total elapsed time: 32.262 seconds.

tnom = 27
temp = 27
method = modified trap
totiter = 719609
traniter = 719563
tranpoints = 239871
accept = 198664
rejected = 41207
matrix size = 67
fillins = 36
solver = Alternate
Matrix Compiler1: 8.78 KB object code size  4.7/3.5/[2.7]
Matrix Compiler2: off  [2.9]/4.0/3.5


