Circuit: * Z:\home\fritz\Nextcloud\Elektroniknode\kneippometer\Simulationen\Schaltregler.asc

Direct Newton iteration for .op point succeeded.

Date: Sun Apr 04 22:33:19 2021
Total elapsed time: 34.328 seconds.

tnom = 27
temp = 27
method = modified trap
totiter = 1624504
traniter = 1624460
tranpoints = 427296
accept = 311642
rejected = 115654
matrix size = 61
fillins = 6
solver = Normal
Thread vector: 12.6/10.6[2] 6.8/5.1[2] 3.3/3.5[1] 1.2/4.3[1]  2592/500
Matrix Compiler1: 3.46 KB object code size  3.0/2.7/[2.4]
Matrix Compiler2: 4.54 KB object code size  2.2/3.5/[1.9]

